/*--------------------------------*- C++ -*----------------------------------*\
| =========                 |                                                 |
| \\      /  F ield         | OpenFOAM: The Open Source CFD Toolbox           |
|  \\    /   O peration     | Version:  2.1.0                                 |
|   \\  /    A nd           | Web:      www.OpenFOAM.org                      |
|    \\/     M anipulation  |                                                 |
\*---------------------------------------------------------------------------*/
FoamFile
{
    version     2.0;
    format      ascii;
    class       featureEdgeMesh;
    location    "constant/triSurface";
    object      coneCylinder.eMesh;
}
// * * * * * * * * * * * * * * * * * * * * * * * * * * * * * * * * * * * * * //


// points:

200
(
(2.57200000000000e+00 1.22464679914735e-16 -5.00000000000000e-01)
(6.57200000000000e+00 1.22464679914735e-16 -5.00000000000000e-01)
(2.57200000000000e+00 -3.13952597646567e-02 -4.99013364214136e-01)
(2.57200000000000e+00 -6.26666167821521e-02 -4.96057350657239e-01)
(2.57200000000000e+00 -9.36906572928623e-02 -4.91143625364344e-01)
(2.57200000000000e+00 -1.24344943582427e-01 -4.84291580564316e-01)
(2.57200000000000e+00 -1.54508497187474e-01 -4.75528258147577e-01)
(2.57200000000000e+00 -1.84062276342339e-01 -4.64888242944126e-01)
(2.57200000000000e+00 -2.12889645782536e-01 -4.52413526233010e-01)
(2.57200000000000e+00 -2.40876837050858e-01 -4.38153340021932e-01)
(2.57200000000000e+00 -2.67913397489498e-01 -4.22163962751008e-01)
(2.57200000000000e+00 -2.93892626146237e-01 -4.04508497187474e-01)
(2.57200000000000e+00 -3.18711994874345e-01 -3.85256621387895e-01)
(2.57200000000000e+00 -3.42273552964344e-01 -3.64484313710706e-01)
(2.57200000000000e+00 -3.64484313710706e-01 -3.42273552964344e-01)
(2.57200000000000e+00 -3.85256621387895e-01 -3.18711994874345e-01)
(2.57200000000000e+00 -4.04508497187474e-01 -2.93892626146237e-01)
(2.57200000000000e+00 -4.22163962751007e-01 -2.67913397489498e-01)
(2.57200000000000e+00 -4.38153340021932e-01 -2.40876837050858e-01)
(2.57200000000000e+00 -4.52413526233010e-01 -2.12889645782536e-01)
(2.57200000000000e+00 -4.64888242944126e-01 -1.84062276342339e-01)
(2.57200000000000e+00 -4.75528258147577e-01 -1.54508497187474e-01)
(2.57200000000000e+00 -4.84291580564316e-01 -1.24344943582427e-01)
(2.57200000000000e+00 -4.91143625364344e-01 -9.36906572928621e-02)
(2.57200000000000e+00 -4.96057350657239e-01 -6.26666167821519e-02)
(2.57200000000000e+00 -4.99013364214136e-01 -3.13952597646564e-02)
(2.57200000000000e+00 -5.00000000000000e-01 3.02450737408863e-16)
(2.57200000000000e+00 -4.99013364214136e-01 3.13952597646570e-02)
(2.57200000000000e+00 -4.96057350657239e-01 6.26666167821525e-02)
(2.57200000000000e+00 -4.91143625364344e-01 9.36906572928627e-02)
(2.57200000000000e+00 -4.84291580564315e-01 1.24344943582428e-01)
(2.57200000000000e+00 -4.75528258147577e-01 1.54508497187474e-01)
(2.57200000000000e+00 -4.64888242944126e-01 1.84062276342340e-01)
(2.57200000000000e+00 -4.52413526233010e-01 2.12889645782537e-01)
(2.57200000000000e+00 -4.38153340021932e-01 2.40876837050858e-01)
(2.57200000000000e+00 -4.22163962751007e-01 2.67913397489499e-01)
(2.57200000000000e+00 -4.04508497187473e-01 2.93892626146237e-01)
(2.57200000000000e+00 -3.85256621387894e-01 3.18711994874345e-01)
(2.57200000000000e+00 -3.64484313710705e-01 3.42273552964345e-01)
(2.57200000000000e+00 -3.42273552964344e-01 3.64484313710706e-01)
(2.57200000000000e+00 -3.18711994874344e-01 3.85256621387895e-01)
(2.57200000000000e+00 -2.93892626146236e-01 4.04508497187474e-01)
(2.57200000000000e+00 -2.67913397489498e-01 4.22163962751008e-01)
(2.57200000000000e+00 -2.40876837050857e-01 4.38153340021932e-01)
(2.57200000000000e+00 -2.12889645782535e-01 4.52413526233010e-01)
(2.57200000000000e+00 -1.84062276342338e-01 4.64888242944126e-01)
(2.57200000000000e+00 -1.54508497187473e-01 4.75528258147577e-01)
(2.57200000000000e+00 -1.24344943582426e-01 4.84291580564316e-01)
(2.57200000000000e+00 -9.36906572928612e-02 4.91143625364345e-01)
(2.57200000000000e+00 -6.26666167821509e-02 4.96057350657239e-01)
(2.57200000000000e+00 -3.13952597646555e-02 4.99013364214136e-01)
(2.57200000000000e+00 1.27103528959282e-15 5.00000000000000e-01)
(2.57200000000000e+00 3.13952597646580e-02 4.99013364214136e-01)
(2.57200000000000e+00 6.26666167821535e-02 4.96057350657239e-01)
(2.57200000000000e+00 9.36906572928637e-02 4.91143625364344e-01)
(2.57200000000000e+00 1.24344943582429e-01 4.84291580564315e-01)
(2.57200000000000e+00 1.54508497187475e-01 4.75528258147576e-01)
(2.57200000000000e+00 1.84062276342340e-01 4.64888242944125e-01)
(2.57200000000000e+00 2.12889645782538e-01 4.52413526233009e-01)
(2.57200000000000e+00 2.40876837050859e-01 4.38153340021931e-01)
(2.57200000000000e+00 2.67913397489500e-01 4.22163962751007e-01)
(2.57200000000000e+00 2.93892626146238e-01 4.04508497187473e-01)
(2.57200000000000e+00 3.18711994874346e-01 3.85256621387894e-01)
(2.57200000000000e+00 3.42273552964346e-01 3.64484313710705e-01)
(2.57200000000000e+00 3.64484313710707e-01 3.42273552964343e-01)
(2.57200000000000e+00 3.85256621387896e-01 3.18711994874343e-01)
(2.57200000000000e+00 4.04508497187475e-01 2.93892626146235e-01)
(2.57200000000000e+00 4.22163962751008e-01 2.67913397489497e-01)
(2.57200000000000e+00 4.38153340021932e-01 2.40876837050856e-01)
(2.57200000000000e+00 4.52413526233010e-01 2.12889645782535e-01)
(2.57200000000000e+00 4.64888242944126e-01 1.84062276342338e-01)
(2.57200000000000e+00 4.75528258147577e-01 1.54508497187473e-01)
(2.57200000000000e+00 4.84291580564316e-01 1.24344943582427e-01)
(2.57200000000000e+00 4.91143625364344e-01 9.36906572928619e-02)
(2.57200000000000e+00 4.96057350657239e-01 6.26666167821519e-02)
(2.57200000000000e+00 4.99013364214136e-01 3.13952597646566e-02)
(2.57200000000000e+00 5.00000000000000e-01 9.18485099360515e-17)
(2.57200000000000e+00 4.99013364214136e-01 -3.13952597646564e-02)
(2.57200000000000e+00 4.96057350657239e-01 -6.26666167821517e-02)
(2.57200000000000e+00 4.91143625364344e-01 -9.36906572928617e-02)
(2.57200000000000e+00 4.84291580564316e-01 -1.24344943582427e-01)
(2.57200000000000e+00 4.75528258147577e-01 -1.54508497187473e-01)
(2.57200000000000e+00 4.64888242944126e-01 -1.84062276342338e-01)
(2.57200000000000e+00 4.52413526233010e-01 -2.12889645782535e-01)
(2.57200000000000e+00 4.38153340021933e-01 -2.40876837050856e-01)
(2.57200000000000e+00 4.22163962751008e-01 -2.67913397489497e-01)
(2.57200000000000e+00 4.04508497187475e-01 -2.93892626146235e-01)
(2.57200000000000e+00 3.85256621387896e-01 -3.18711994874343e-01)
(2.57200000000000e+00 3.64484313710707e-01 -3.42273552964343e-01)
(2.57200000000000e+00 3.42273552964346e-01 -3.64484313710704e-01)
(2.57200000000000e+00 3.18711994874347e-01 -3.85256621387893e-01)
(2.57200000000000e+00 2.93892626146239e-01 -4.04508497187472e-01)
(2.57200000000000e+00 2.67913397489501e-01 -4.22163962751006e-01)
(2.57200000000000e+00 2.40876837050860e-01 -4.38153340021930e-01)
(2.57200000000000e+00 2.12889645782539e-01 -4.52413526233008e-01)
(2.57200000000000e+00 1.84062276342342e-01 -4.64888242944124e-01)
(2.57200000000000e+00 1.54508497187477e-01 -4.75528258147576e-01)
(2.57200000000000e+00 1.24344943582431e-01 -4.84291580564315e-01)
(2.57200000000000e+00 9.36906572928663e-02 -4.91143625364344e-01)
(2.57200000000000e+00 6.26666167821563e-02 -4.96057350657238e-01)
(2.57200000000000e+00 3.13952597646611e-02 -4.99013364214136e-01)
(6.57200000000000e+00 -3.13952597646567e-02 -4.99013364214136e-01)
(6.57200000000000e+00 -6.26666167821521e-02 -4.96057350657239e-01)
(6.57200000000000e+00 -9.36906572928623e-02 -4.91143625364344e-01)
(6.57200000000000e+00 -1.24344943582427e-01 -4.84291580564316e-01)
(6.57200000000000e+00 -1.54508497187474e-01 -4.75528258147577e-01)
(6.57200000000000e+00 -1.84062276342339e-01 -4.64888242944126e-01)
(6.57200000000000e+00 -2.12889645782536e-01 -4.52413526233010e-01)
(6.57200000000000e+00 -2.40876837050858e-01 -4.38153340021932e-01)
(6.57200000000000e+00 -2.67913397489498e-01 -4.22163962751008e-01)
(6.57200000000000e+00 -2.93892626146237e-01 -4.04508497187474e-01)
(6.57200000000000e+00 -3.18711994874345e-01 -3.85256621387895e-01)
(6.57200000000000e+00 -3.42273552964344e-01 -3.64484313710706e-01)
(6.57200000000000e+00 -3.64484313710706e-01 -3.42273552964344e-01)
(6.57200000000000e+00 -3.85256621387895e-01 -3.18711994874345e-01)
(6.57200000000000e+00 -4.04508497187474e-01 -2.93892626146237e-01)
(6.57200000000000e+00 -4.22163962751007e-01 -2.67913397489498e-01)
(6.57200000000000e+00 -4.38153340021932e-01 -2.40876837050858e-01)
(6.57200000000000e+00 -4.52413526233010e-01 -2.12889645782536e-01)
(6.57200000000000e+00 -4.64888242944126e-01 -1.84062276342339e-01)
(6.57200000000000e+00 -4.75528258147577e-01 -1.54508497187474e-01)
(6.57200000000000e+00 -4.84291580564316e-01 -1.24344943582427e-01)
(6.57200000000000e+00 -4.91143625364344e-01 -9.36906572928621e-02)
(6.57200000000000e+00 -4.96057350657239e-01 -6.26666167821519e-02)
(6.57200000000000e+00 -4.99013364214136e-01 -3.13952597646564e-02)
(6.57200000000000e+00 -5.00000000000000e-01 3.02450737408863e-16)
(6.57200000000000e+00 -4.99013364214136e-01 3.13952597646570e-02)
(6.57200000000000e+00 -4.96057350657239e-01 6.26666167821525e-02)
(6.57200000000000e+00 -4.91143625364344e-01 9.36906572928627e-02)
(6.57200000000000e+00 -4.84291580564315e-01 1.24344943582428e-01)
(6.57200000000000e+00 -4.75528258147577e-01 1.54508497187474e-01)
(6.57200000000000e+00 -4.64888242944126e-01 1.84062276342340e-01)
(6.57200000000000e+00 -4.52413526233010e-01 2.12889645782537e-01)
(6.57200000000000e+00 -4.38153340021932e-01 2.40876837050858e-01)
(6.57200000000000e+00 -4.22163962751007e-01 2.67913397489499e-01)
(6.57200000000000e+00 -4.04508497187473e-01 2.93892626146237e-01)
(6.57200000000000e+00 -3.85256621387894e-01 3.18711994874345e-01)
(6.57200000000000e+00 -3.64484313710705e-01 3.42273552964345e-01)
(6.57200000000000e+00 -3.42273552964344e-01 3.64484313710706e-01)
(6.57200000000000e+00 -3.18711994874344e-01 3.85256621387895e-01)
(6.57200000000000e+00 -2.93892626146236e-01 4.04508497187474e-01)
(6.57200000000000e+00 -2.67913397489498e-01 4.22163962751008e-01)
(6.57200000000000e+00 -2.40876837050857e-01 4.38153340021932e-01)
(6.57200000000000e+00 -2.12889645782535e-01 4.52413526233010e-01)
(6.57200000000000e+00 -1.84062276342338e-01 4.64888242944126e-01)
(6.57200000000000e+00 -1.54508497187473e-01 4.75528258147577e-01)
(6.57200000000000e+00 -1.24344943582426e-01 4.84291580564316e-01)
(6.57200000000000e+00 -9.36906572928612e-02 4.91143625364345e-01)
(6.57200000000000e+00 -6.26666167821509e-02 4.96057350657239e-01)
(6.57200000000000e+00 -3.13952597646555e-02 4.99013364214136e-01)
(6.57200000000000e+00 1.27103528959282e-15 5.00000000000000e-01)
(6.57200000000000e+00 3.13952597646580e-02 4.99013364214136e-01)
(6.57200000000000e+00 6.26666167821535e-02 4.96057350657239e-01)
(6.57200000000000e+00 9.36906572928637e-02 4.91143625364344e-01)
(6.57200000000000e+00 1.24344943582429e-01 4.84291580564315e-01)
(6.57200000000000e+00 1.54508497187475e-01 4.75528258147576e-01)
(6.57200000000000e+00 1.84062276342340e-01 4.64888242944125e-01)
(6.57200000000000e+00 2.12889645782538e-01 4.52413526233009e-01)
(6.57200000000000e+00 2.40876837050859e-01 4.38153340021931e-01)
(6.57200000000000e+00 2.67913397489500e-01 4.22163962751007e-01)
(6.57200000000000e+00 2.93892626146238e-01 4.04508497187473e-01)
(6.57200000000000e+00 3.18711994874346e-01 3.85256621387894e-01)
(6.57200000000000e+00 3.42273552964346e-01 3.64484313710705e-01)
(6.57200000000000e+00 3.64484313710707e-01 3.42273552964343e-01)
(6.57200000000000e+00 3.85256621387896e-01 3.18711994874343e-01)
(6.57200000000000e+00 4.04508497187475e-01 2.93892626146235e-01)
(6.57200000000000e+00 4.22163962751008e-01 2.67913397489497e-01)
(6.57200000000000e+00 4.38153340021932e-01 2.40876837050856e-01)
(6.57200000000000e+00 4.52413526233010e-01 2.12889645782535e-01)
(6.57200000000000e+00 4.64888242944126e-01 1.84062276342338e-01)
(6.57200000000000e+00 4.75528258147577e-01 1.54508497187473e-01)
(6.57200000000000e+00 4.84291580564316e-01 1.24344943582427e-01)
(6.57200000000000e+00 4.91143625364344e-01 9.36906572928619e-02)
(6.57200000000000e+00 4.96057350657239e-01 6.26666167821519e-02)
(6.57200000000000e+00 4.99013364214136e-01 3.13952597646566e-02)
(6.57200000000000e+00 5.00000000000000e-01 9.18485099360515e-17)
(6.57200000000000e+00 4.99013364214136e-01 -3.13952597646564e-02)
(6.57200000000000e+00 4.96057350657239e-01 -6.26666167821517e-02)
(6.57200000000000e+00 4.91143625364344e-01 -9.36906572928617e-02)
(6.57200000000000e+00 4.84291580564316e-01 -1.24344943582427e-01)
(6.57200000000000e+00 4.75528258147577e-01 -1.54508497187473e-01)
(6.57200000000000e+00 4.64888242944126e-01 -1.84062276342338e-01)
(6.57200000000000e+00 4.52413526233010e-01 -2.12889645782535e-01)
(6.57200000000000e+00 4.38153340021933e-01 -2.40876837050856e-01)
(6.57200000000000e+00 4.22163962751008e-01 -2.67913397489497e-01)
(6.57200000000000e+00 4.04508497187475e-01 -2.93892626146235e-01)
(6.57200000000000e+00 3.85256621387896e-01 -3.18711994874343e-01)
(6.57200000000000e+00 3.64484313710707e-01 -3.42273552964343e-01)
(6.57200000000000e+00 3.42273552964346e-01 -3.64484313710704e-01)
(6.57200000000000e+00 3.18711994874347e-01 -3.85256621387893e-01)
(6.57200000000000e+00 2.93892626146239e-01 -4.04508497187472e-01)
(6.57200000000000e+00 2.67913397489501e-01 -4.22163962751006e-01)
(6.57200000000000e+00 2.40876837050860e-01 -4.38153340021930e-01)
(6.57200000000000e+00 2.12889645782539e-01 -4.52413526233008e-01)
(6.57200000000000e+00 1.84062276342342e-01 -4.64888242944124e-01)
(6.57200000000000e+00 1.54508497187477e-01 -4.75528258147576e-01)
(6.57200000000000e+00 1.24344943582431e-01 -4.84291580564315e-01)
(6.57200000000000e+00 9.36906572928663e-02 -4.91143625364344e-01)
(6.57200000000000e+00 6.26666167821563e-02 -4.96057350657238e-01)
(6.57200000000000e+00 3.13952597646611e-02 -4.99013364214136e-01)
)


// edges:

200
(
(0 2)
(2 3)
(3 4)
(4 5)
(5 6)
(6 7)
(7 8)
(8 9)
(9 10)
(10 11)
(11 12)
(12 13)
(13 14)
(14 15)
(15 16)
(16 17)
(17 18)
(18 19)
(19 20)
(20 21)
(21 22)
(22 23)
(23 24)
(24 25)
(25 26)
(26 27)
(27 28)
(28 29)
(29 30)
(30 31)
(31 32)
(32 33)
(33 34)
(34 35)
(35 36)
(36 37)
(37 38)
(38 39)
(39 40)
(40 41)
(41 42)
(42 43)
(43 44)
(44 45)
(45 46)
(46 47)
(47 48)
(48 49)
(49 50)
(50 51)
(51 52)
(52 53)
(53 54)
(54 55)
(55 56)
(56 57)
(57 58)
(58 59)
(59 60)
(60 61)
(61 62)
(62 63)
(63 64)
(64 65)
(65 66)
(66 67)
(67 68)
(68 69)
(69 70)
(70 71)
(71 72)
(72 73)
(73 74)
(74 75)
(75 76)
(76 77)
(77 78)
(78 79)
(79 80)
(80 81)
(81 82)
(82 83)
(83 84)
(84 85)
(85 86)
(86 87)
(87 88)
(88 89)
(89 90)
(90 91)
(91 92)
(92 93)
(93 94)
(94 95)
(95 96)
(96 97)
(97 98)
(98 99)
(99 100)
(100 0)
(1 101)
(101 102)
(102 103)
(103 104)
(104 105)
(105 106)
(106 107)
(107 108)
(108 109)
(109 110)
(110 111)
(111 112)
(112 113)
(113 114)
(114 115)
(115 116)
(116 117)
(117 118)
(118 119)
(119 120)
(120 121)
(121 122)
(122 123)
(123 124)
(124 125)
(125 126)
(126 127)
(127 128)
(128 129)
(129 130)
(130 131)
(131 132)
(132 133)
(133 134)
(134 135)
(135 136)
(136 137)
(137 138)
(138 139)
(139 140)
(140 141)
(141 142)
(142 143)
(143 144)
(144 145)
(145 146)
(146 147)
(147 148)
(148 149)
(149 150)
(150 151)
(151 152)
(152 153)
(153 154)
(154 155)
(155 156)
(156 157)
(157 158)
(158 159)
(159 160)
(160 161)
(161 162)
(162 163)
(163 164)
(164 165)
(165 166)
(166 167)
(167 168)
(168 169)
(169 170)
(170 171)
(171 172)
(172 173)
(173 174)
(174 175)
(175 176)
(176 177)
(177 178)
(178 179)
(179 180)
(180 181)
(181 182)
(182 183)
(183 184)
(184 185)
(185 186)
(186 187)
(187 188)
(188 189)
(189 190)
(190 191)
(191 192)
(192 193)
(193 194)
(194 195)
(195 196)
(196 197)
(197 198)
(198 199)
(199 1)
)

// * * * * * * * * * * * * * * * * * * * * * * * * * * * * * * * * * * * * * //


// ************************************************************************* //
