/*--------------------------------*- C++ -*----------------------------------*\
| =========                 |                                                 |
| \\      /  F ield         | OpenFOAM: The Open Source CFD Toolbox           |
|  \\    /   O peration     | Version:  2.1.0                                 |
|   \\  /    A nd           | Web:      www.OpenFOAM.org                      |
|    \\/     M anipulation  |                                                 |
\*---------------------------------------------------------------------------*/
FoamFile
{
    version     2.0;
    format      ascii;
    class       featureEdgeMesh;
    location    "constant/triSurface";
    object      coneCylinder.eMesh;
}
// * * * * * * * * * * * * * * * * * * * * * * * * * * * * * * * * * * * * * //


// points:

2408
(
(2.73161628968689e+00 -5.86898628384834e-02 -5.86898628384835e-02)
(2.74403967990562e+00 -1.59099025766973e-01 -1.59099025766973e-01)
(2.56000000005267e+00 5.86898628384834e-02 -5.86898628384835e-02)
(2.67915214762717e+00 1.59099025766973e-01 -1.59099025766973e-01)
(2.56000000005278e+00 -5.86898628384834e-02 -5.86898628384835e-02)
(2.67915214762717e+00 -1.59099025766973e-01 -1.59099025766973e-01)
(2.73161628968689e+00 5.86898628384835e-02 5.86898628384834e-02)
(2.74403967990562e+00 1.59099025766973e-01 1.59099025766973e-01)
(2.56000000002441e+00 -5.86898628384835e-02 5.86898628384835e-02)
(2.67915214762717e+00 -1.59099025766973e-01 1.59099025766973e-01)
(2.73161628968696e+00 5.86898628384834e-02 -5.86898628384835e-02)
(2.74403967990562e+00 1.59099025766973e-01 -1.59099025766973e-01)
(2.73161628971149e+00 -5.86898628384835e-02 5.86898628384835e-02)
(2.74403967990562e+00 -1.59099025766973e-01 1.59099025766973e-01)
(2.56000000005278e+00 5.86898628384835e-02 5.86898628384834e-02)
(2.67915214762717e+00 1.59099025766973e-01 1.59099025766973e-01)
(2.73165770094087e+00 -5.90245600511373e-02 -5.90245600511373e-02)
(2.73169911224165e+00 -5.93592572608956e-02 -5.93592572608956e-02)
(2.73174052354244e+00 -5.96939544706537e-02 -5.96939544706538e-02)
(2.73178193484323e+00 -6.00286516804117e-02 -6.00286516804118e-02)
(2.73182334614402e+00 -6.03633488901696e-02 -6.03633488901696e-02)
(2.73186475744481e+00 -6.06980460999273e-02 -6.06980460999273e-02)
(2.73190616874560e+00 -6.10327433096849e-02 -6.10327433096849e-02)
(2.73194758004640e+00 -6.13674405194423e-02 -6.13674405194423e-02)
(2.73198899134720e+00 -6.17021377291996e-02 -6.17021377291996e-02)
(2.73203040264800e+00 -6.20368349389568e-02 -6.20368349389568e-02)
(2.73207181394880e+00 -6.23715321487138e-02 -6.23715321487138e-02)
(2.73211322524961e+00 -6.27062293584707e-02 -6.27062293584707e-02)
(2.73215463655042e+00 -6.30409265682274e-02 -6.30409265682274e-02)
(2.73219604785123e+00 -6.33756237779840e-02 -6.33756237779840e-02)
(2.73223745915204e+00 -6.37103209877405e-02 -6.37103209877405e-02)
(2.73227887045286e+00 -6.40450181974968e-02 -6.40450181974968e-02)
(2.73232028175367e+00 -6.43797154072530e-02 -6.43797154072530e-02)
(2.73236169305449e+00 -6.47144126170091e-02 -6.47144126170091e-02)
(2.73240310435531e+00 -6.50491098267650e-02 -6.50491098267650e-02)
(2.73244451565614e+00 -6.53838070365208e-02 -6.53838070365208e-02)
(2.73248592695696e+00 -6.57185042462765e-02 -6.57185042462765e-02)
(2.73252733825779e+00 -6.60532014560321e-02 -6.60532014560321e-02)
(2.73256874955862e+00 -6.63878986657875e-02 -6.63878986657875e-02)
(2.73261016085945e+00 -6.67225958755428e-02 -6.67225958755428e-02)
(2.73265157216028e+00 -6.70572930852980e-02 -6.70572930852980e-02)
(2.73269298346112e+00 -6.73919902950530e-02 -6.73919902950531e-02)
(2.73273439476196e+00 -6.77266875048080e-02 -6.77266875048080e-02)
(2.73277580606280e+00 -6.80613847145628e-02 -6.80613847145628e-02)
(2.73281721736364e+00 -6.83960819243175e-02 -6.83960819243175e-02)
(2.73285862866448e+00 -6.87307791340720e-02 -6.87307791340721e-02)
(2.73290003996532e+00 -6.90654763438265e-02 -6.90654763438265e-02)
(2.73294145126617e+00 -6.94001735535808e-02 -6.94001735535809e-02)
(2.73298286256702e+00 -6.97348707633351e-02 -6.97348707633351e-02)
(2.73302427386787e+00 -7.00695679730892e-02 -7.00695679730892e-02)
(2.73306568516872e+00 -7.04042651828432e-02 -7.04042651828432e-02)
(2.73310709646958e+00 -7.07389623925971e-02 -7.07389623925971e-02)
(2.73314850777043e+00 -7.10736596023508e-02 -7.10736596023508e-02)
(2.73318991907129e+00 -7.14083568121045e-02 -7.14083568121045e-02)
(2.73323133037215e+00 -7.17430540218580e-02 -7.17430540218581e-02)
(2.73327274167301e+00 -7.20777512316115e-02 -7.20777512316115e-02)
(2.73331415297388e+00 -7.24124484413648e-02 -7.24124484413648e-02)
(2.73335556427474e+00 -7.27471456511180e-02 -7.27471456511181e-02)
(2.73339697557561e+00 -7.30818428608712e-02 -7.30818428608712e-02)
(2.73343838687648e+00 -7.34165400706242e-02 -7.34165400706242e-02)
(2.73347979817735e+00 -7.37512372803771e-02 -7.37512372803771e-02)
(2.73352120947822e+00 -7.40859344901299e-02 -7.40859344901300e-02)
(2.73356262077909e+00 -7.44206316998827e-02 -7.44206316998827e-02)
(2.73360403207996e+00 -7.47553289096353e-02 -7.47553289096353e-02)
(2.73364544338084e+00 -7.50900261193878e-02 -7.50900261193878e-02)
(2.73368685468172e+00 -7.54247233291402e-02 -7.54247233291402e-02)
(2.73372826598260e+00 -7.57594205388925e-02 -7.57594205388926e-02)
(2.73376967728348e+00 -7.60941177486448e-02 -7.60941177486448e-02)
(2.73381108858436e+00 -7.64288149583969e-02 -7.64288149583969e-02)
(2.73385249988525e+00 -7.67635121681489e-02 -7.67635121681490e-02)
(2.73389391118613e+00 -7.70982093779009e-02 -7.70982093779009e-02)
(2.73393532248702e+00 -7.74329065876528e-02 -7.74329065876528e-02)
(2.73397673378791e+00 -7.77676037974045e-02 -7.77676037974045e-02)
(2.73401814508880e+00 -7.81023010071562e-02 -7.81023010071562e-02)
(2.73405955638969e+00 -7.84369982169078e-02 -7.84369982169078e-02)
(2.73410096769058e+00 -7.87716954266593e-02 -7.87716954266593e-02)
(2.73414237899148e+00 -7.91063926364107e-02 -7.91063926364107e-02)
(2.73418379029237e+00 -7.94410898461620e-02 -7.94410898461621e-02)
(2.73422520159327e+00 -7.97757870559133e-02 -7.97757870559133e-02)
(2.73426661289417e+00 -8.01104842656644e-02 -8.01104842656645e-02)
(2.73430802419507e+00 -8.04451814754155e-02 -8.04451814754156e-02)
(2.73434943549597e+00 -8.07798786851665e-02 -8.07798786851666e-02)
(2.73439084679687e+00 -8.11145758949175e-02 -8.11145758949175e-02)
(2.73443225809777e+00 -8.14492731046683e-02 -8.14492731046683e-02)
(2.73447366939868e+00 -8.17839703144191e-02 -8.17839703144191e-02)
(2.73451508069958e+00 -8.21186675241698e-02 -8.21186675241698e-02)
(2.73455649200049e+00 -8.24533647339204e-02 -8.24533647339204e-02)
(2.73459790330140e+00 -8.27880619436709e-02 -8.27880619436709e-02)
(2.73463931460231e+00 -8.31227591534214e-02 -8.31227591534214e-02)
(2.73468072590322e+00 -8.34574563631718e-02 -8.34574563631718e-02)
(2.73472213720413e+00 -8.37921535729221e-02 -8.37921535729221e-02)
(2.73476354850504e+00 -8.41268507826723e-02 -8.41268507826724e-02)
(2.73480495980596e+00 -8.44615479924225e-02 -8.44615479924226e-02)
(2.73484637110687e+00 -8.47962452021727e-02 -8.47962452021727e-02)
(2.73488778240779e+00 -8.51309424119227e-02 -8.51309424119227e-02)
(2.73492919370871e+00 -8.54656396216727e-02 -8.54656396216727e-02)
(2.73497060500962e+00 -8.58003368314226e-02 -8.58003368314226e-02)
(2.73501201631054e+00 -8.61350340411725e-02 -8.61350340411725e-02)
(2.73505342761146e+00 -8.64697312509223e-02 -8.64697312509223e-02)
(2.73509483891239e+00 -8.68044284606720e-02 -8.68044284606720e-02)
(2.73513625021331e+00 -8.71391256704217e-02 -8.71391256704217e-02)
(2.73517766151423e+00 -8.74738228801713e-02 -8.74738228801713e-02)
(2.73521907281516e+00 -8.78085200899208e-02 -8.78085200899208e-02)
(2.73526048411608e+00 -8.81432172996703e-02 -8.81432172996703e-02)
(2.73530189541701e+00 -8.84779145094197e-02 -8.84779145094198e-02)
(2.73534330671793e+00 -8.88126117191692e-02 -8.88126117191692e-02)
(2.73538471801886e+00 -8.91473089289185e-02 -8.91473089289185e-02)
(2.73542612931979e+00 -8.94820061386678e-02 -8.94820061386678e-02)
(2.73546754062072e+00 -8.98167033484170e-02 -8.98167033484170e-02)
(2.73550895192165e+00 -9.01514005581661e-02 -9.01514005581662e-02)
(2.73555036322258e+00 -9.04860977679153e-02 -9.04860977679153e-02)
(2.73559177452351e+00 -9.08207949776643e-02 -9.08207949776644e-02)
(2.73563318582445e+00 -9.11554921874134e-02 -9.11554921874134e-02)
(2.73567459712538e+00 -9.14901893971623e-02 -9.14901893971624e-02)
(2.73571600842631e+00 -9.18248866069113e-02 -9.18248866069113e-02)
(2.73575741972725e+00 -9.21595838166602e-02 -9.21595838166602e-02)
(2.73579883102819e+00 -9.24942810264090e-02 -9.24942810264090e-02)
(2.73584024232912e+00 -9.28289782361578e-02 -9.28289782361578e-02)
(2.73588165363006e+00 -9.31636754459066e-02 -9.31636754459066e-02)
(2.73592306493100e+00 -9.34983726556553e-02 -9.34983726556553e-02)
(2.73596447623193e+00 -9.38330698654040e-02 -9.38330698654040e-02)
(2.73600588753287e+00 -9.41677670751526e-02 -9.41677670751526e-02)
(2.73604729883381e+00 -9.45024642849012e-02 -9.45024642849012e-02)
(2.73608871013475e+00 -9.48371614946498e-02 -9.48371614946498e-02)
(2.73613012143569e+00 -9.51718587043983e-02 -9.51718587043984e-02)
(2.73617153273663e+00 -9.55065559141468e-02 -9.55065559141469e-02)
(2.73621294403758e+00 -9.58412531238953e-02 -9.58412531238953e-02)
(2.73625435533852e+00 -9.61759503336437e-02 -9.61759503336438e-02)
(2.73629576663946e+00 -9.65106475433921e-02 -9.65106475433922e-02)
(2.73633717794041e+00 -9.68453447531405e-02 -9.68453447531405e-02)
(2.73637858924135e+00 -9.71800419628889e-02 -9.71800419628889e-02)
(2.73642000054229e+00 -9.75147391726372e-02 -9.75147391726372e-02)
(2.73646141184324e+00 -9.78494363823855e-02 -9.78494363823855e-02)
(2.73650282314418e+00 -9.81841335921337e-02 -9.81841335921338e-02)
(2.73654423444513e+00 -9.85188308018820e-02 -9.85188308018820e-02)
(2.73658564574607e+00 -9.88535280116302e-02 -9.88535280116302e-02)
(2.73662705704702e+00 -9.91882252213784e-02 -9.91882252213784e-02)
(2.73666846834797e+00 -9.95229224311266e-02 -9.95229224311266e-02)
(2.73670987964891e+00 -9.98576196408747e-02 -9.98576196408747e-02)
(2.73675129094986e+00 -1.00192316850623e-01 -1.00192316850623e-01)
(2.73679270225081e+00 -1.00527014060371e-01 -1.00527014060371e-01)
(2.73683411355176e+00 -1.00861711270119e-01 -1.00861711270119e-01)
(2.73687552485270e+00 -1.01196408479867e-01 -1.01196408479867e-01)
(2.73691693615365e+00 -1.01531105689615e-01 -1.01531105689615e-01)
(2.73695834745460e+00 -1.01865802899363e-01 -1.01865802899363e-01)
(2.73699975875555e+00 -1.02200500109111e-01 -1.02200500109111e-01)
(2.73704117005650e+00 -1.02535197318859e-01 -1.02535197318859e-01)
(2.73708258135745e+00 -1.02869894528607e-01 -1.02869894528607e-01)
(2.73712399265840e+00 -1.03204591738355e-01 -1.03204591738355e-01)
(2.73716540395935e+00 -1.03539288948103e-01 -1.03539288948103e-01)
(2.73720681526030e+00 -1.03873986157851e-01 -1.03873986157851e-01)
(2.73724822656125e+00 -1.04208683367599e-01 -1.04208683367599e-01)
(2.73728963786220e+00 -1.04543380577347e-01 -1.04543380577347e-01)
(2.73733104916315e+00 -1.04878077787095e-01 -1.04878077787095e-01)
(2.73737246046410e+00 -1.05212774996843e-01 -1.05212774996843e-01)
(2.73741387176505e+00 -1.05547472206591e-01 -1.05547472206591e-01)
(2.73745528306600e+00 -1.05882169416339e-01 -1.05882169416339e-01)
(2.73749669436695e+00 -1.06216866626087e-01 -1.06216866626087e-01)
(2.73753810566789e+00 -1.06551563835835e-01 -1.06551563835835e-01)
(2.73757951696884e+00 -1.06886261045583e-01 -1.06886261045583e-01)
(2.73762092826979e+00 -1.07220958255331e-01 -1.07220958255331e-01)
(2.73766233957074e+00 -1.07555655465079e-01 -1.07555655465079e-01)
(2.73770375087169e+00 -1.07890352674827e-01 -1.07890352674827e-01)
(2.73774516217264e+00 -1.08225049884575e-01 -1.08225049884575e-01)
(2.73778657347359e+00 -1.08559747094323e-01 -1.08559747094323e-01)
(2.73782798477454e+00 -1.08894444304071e-01 -1.08894444304071e-01)
(2.73786939607549e+00 -1.09229141513819e-01 -1.09229141513819e-01)
(2.73791080737644e+00 -1.09563838723567e-01 -1.09563838723567e-01)
(2.73795221867739e+00 -1.09898535933315e-01 -1.09898535933315e-01)
(2.73799362997834e+00 -1.10233233143063e-01 -1.10233233143063e-01)
(2.73803504127929e+00 -1.10567930352811e-01 -1.10567930352811e-01)
(2.73807645258023e+00 -1.10902627562559e-01 -1.10902627562559e-01)
(2.73811786388118e+00 -1.11237324772307e-01 -1.11237324772307e-01)
(2.73815927518213e+00 -1.11572021982055e-01 -1.11572021982055e-01)
(2.73820068648308e+00 -1.11906719191804e-01 -1.11906719191804e-01)
(2.73824209778402e+00 -1.12241416401552e-01 -1.12241416401552e-01)
(2.73828350908497e+00 -1.12576113611300e-01 -1.12576113611300e-01)
(2.73832492038592e+00 -1.12910810821048e-01 -1.12910810821048e-01)
(2.73836633168686e+00 -1.13245508030796e-01 -1.13245508030796e-01)
(2.73840774298781e+00 -1.13580205240545e-01 -1.13580205240545e-01)
(2.73844915428875e+00 -1.13914902450293e-01 -1.13914902450293e-01)
(2.73849056558970e+00 -1.14249599660041e-01 -1.14249599660041e-01)
(2.73853197689064e+00 -1.14584296869789e-01 -1.14584296869789e-01)
(2.73857338819159e+00 -1.14918994079538e-01 -1.14918994079538e-01)
(2.73861479949253e+00 -1.15253691289286e-01 -1.15253691289286e-01)
(2.73865621079347e+00 -1.15588388499034e-01 -1.15588388499034e-01)
(2.73869762209442e+00 -1.15923085708783e-01 -1.15923085708783e-01)
(2.73873903339536e+00 -1.16257782918531e-01 -1.16257782918531e-01)
(2.73878044469630e+00 -1.16592480128280e-01 -1.16592480128280e-01)
(2.73882185599724e+00 -1.16927177338028e-01 -1.16927177338028e-01)
(2.73886326729818e+00 -1.17261874547777e-01 -1.17261874547777e-01)
(2.73890467859912e+00 -1.17596571757525e-01 -1.17596571757526e-01)
(2.73894608990006e+00 -1.17931268967274e-01 -1.17931268967274e-01)
(2.73898750120100e+00 -1.18265966177023e-01 -1.18265966177023e-01)
(2.73902891250194e+00 -1.18600663386771e-01 -1.18600663386771e-01)
(2.73907032380288e+00 -1.18935360596520e-01 -1.18935360596520e-01)
(2.73911173510381e+00 -1.19270057806269e-01 -1.19270057806269e-01)
(2.73915314640475e+00 -1.19604755016018e-01 -1.19604755016018e-01)
(2.73919455770568e+00 -1.19939452225767e-01 -1.19939452225767e-01)
(2.73923596900662e+00 -1.20274149435516e-01 -1.20274149435516e-01)
(2.73927738030755e+00 -1.20608846645265e-01 -1.20608846645265e-01)
(2.73931879160849e+00 -1.20943543855014e-01 -1.20943543855014e-01)
(2.73936020290942e+00 -1.21278241064763e-01 -1.21278241064763e-01)
(2.73940161421035e+00 -1.21612938274512e-01 -1.21612938274512e-01)
(2.73944302551128e+00 -1.21947635484261e-01 -1.21947635484261e-01)
(2.73948443681221e+00 -1.22282332694010e-01 -1.22282332694010e-01)
(2.73952584811314e+00 -1.22617029903759e-01 -1.22617029903759e-01)
(2.73956725941407e+00 -1.22951727113509e-01 -1.22951727113509e-01)
(2.73960867071500e+00 -1.23286424323258e-01 -1.23286424323258e-01)
(2.73965008201592e+00 -1.23621121533007e-01 -1.23621121533007e-01)
(2.73969149331685e+00 -1.23955818742757e-01 -1.23955818742757e-01)
(2.73973290461777e+00 -1.24290515952506e-01 -1.24290515952506e-01)
(2.73977431591870e+00 -1.24625213162256e-01 -1.24625213162256e-01)
(2.73981572721962e+00 -1.24959910372006e-01 -1.24959910372006e-01)
(2.73985713852054e+00 -1.25294607581755e-01 -1.25294607581755e-01)
(2.73989854982146e+00 -1.25629304791505e-01 -1.25629304791505e-01)
(2.73993996112238e+00 -1.25964002001255e-01 -1.25964002001255e-01)
(2.73998137242330e+00 -1.26298699211005e-01 -1.26298699211005e-01)
(2.74002278372422e+00 -1.26633396420755e-01 -1.26633396420755e-01)
(2.74006419502513e+00 -1.26968093630505e-01 -1.26968093630505e-01)
(2.74010560632605e+00 -1.27302790840255e-01 -1.27302790840255e-01)
(2.74014701762696e+00 -1.27637488050005e-01 -1.27637488050005e-01)
(2.74018842892788e+00 -1.27972185259755e-01 -1.27972185259755e-01)
(2.74022984022879e+00 -1.28306882469506e-01 -1.28306882469506e-01)
(2.74027125152970e+00 -1.28641579679256e-01 -1.28641579679256e-01)
(2.74031266283061e+00 -1.28976276889006e-01 -1.28976276889006e-01)
(2.74035407413152e+00 -1.29310974098757e-01 -1.29310974098757e-01)
(2.74039548543243e+00 -1.29645671308507e-01 -1.29645671308507e-01)
(2.74043689673333e+00 -1.29980368518258e-01 -1.29980368518258e-01)
(2.74047830803424e+00 -1.30315065728009e-01 -1.30315065728009e-01)
(2.74051971933514e+00 -1.30649762937760e-01 -1.30649762937760e-01)
(2.74056113063605e+00 -1.30984460147510e-01 -1.30984460147510e-01)
(2.74060254193695e+00 -1.31319157357261e-01 -1.31319157357261e-01)
(2.74064395323785e+00 -1.31653854567012e-01 -1.31653854567013e-01)
(2.74068536453875e+00 -1.31988551776764e-01 -1.31988551776764e-01)
(2.74072677583964e+00 -1.32323248986515e-01 -1.32323248986515e-01)
(2.74076818714054e+00 -1.32657946196266e-01 -1.32657946196266e-01)
(2.74080959844144e+00 -1.32992643406017e-01 -1.32992643406018e-01)
(2.74085100974233e+00 -1.33327340615769e-01 -1.33327340615769e-01)
(2.74089242104322e+00 -1.33662037825520e-01 -1.33662037825521e-01)
(2.74093383234411e+00 -1.33996735035272e-01 -1.33996735035272e-01)
(2.74097524364500e+00 -1.34331432245024e-01 -1.34331432245024e-01)
(2.74101665494589e+00 -1.34666129454776e-01 -1.34666129454776e-01)
(2.74105806624677e+00 -1.35000826664528e-01 -1.35000826664528e-01)
(2.74109947754766e+00 -1.35335523874280e-01 -1.35335523874280e-01)
(2.74114088884854e+00 -1.35670221084032e-01 -1.35670221084032e-01)
(2.74118230014942e+00 -1.36004918293784e-01 -1.36004918293784e-01)
(2.74122371145030e+00 -1.36339615503536e-01 -1.36339615503536e-01)
(2.74126512275118e+00 -1.36674312713289e-01 -1.36674312713289e-01)
(2.74130653405206e+00 -1.37009009923041e-01 -1.37009009923041e-01)
(2.74134794535294e+00 -1.37343707132794e-01 -1.37343707132794e-01)
(2.74138935665381e+00 -1.37678404342546e-01 -1.37678404342546e-01)
(2.74143076795468e+00 -1.38013101552299e-01 -1.38013101552299e-01)
(2.74147217925555e+00 -1.38347798762052e-01 -1.38347798762052e-01)
(2.74151359055642e+00 -1.38682495971805e-01 -1.38682495971805e-01)
(2.74155500185729e+00 -1.39017193181558e-01 -1.39017193181558e-01)
(2.74159641315815e+00 -1.39351890391311e-01 -1.39351890391311e-01)
(2.74163782445902e+00 -1.39686587601064e-01 -1.39686587601064e-01)
(2.74167923575988e+00 -1.40021284810818e-01 -1.40021284810818e-01)
(2.74172064706074e+00 -1.40355982020571e-01 -1.40355982020571e-01)
(2.74176205836160e+00 -1.40690679230325e-01 -1.40690679230325e-01)
(2.74180346966246e+00 -1.41025376440079e-01 -1.41025376440079e-01)
(2.74184488096331e+00 -1.41360073649832e-01 -1.41360073649832e-01)
(2.74188629226416e+00 -1.41694770859586e-01 -1.41694770859586e-01)
(2.74192770356502e+00 -1.42029468069340e-01 -1.42029468069340e-01)
(2.74196911486587e+00 -1.42364165279095e-01 -1.42364165279095e-01)
(2.74201052616671e+00 -1.42698862488849e-01 -1.42698862488849e-01)
(2.74205193746756e+00 -1.43033559698603e-01 -1.43033559698603e-01)
(2.74209334876840e+00 -1.43368256908358e-01 -1.43368256908358e-01)
(2.74213476006925e+00 -1.43702954118112e-01 -1.43702954118113e-01)
(2.74217617137009e+00 -1.44037651327867e-01 -1.44037651327867e-01)
(2.74221758267092e+00 -1.44372348537622e-01 -1.44372348537622e-01)
(2.74225899397176e+00 -1.44707045747377e-01 -1.44707045747377e-01)
(2.74230040527260e+00 -1.45041742957132e-01 -1.45041742957132e-01)
(2.74234181657343e+00 -1.45376440166887e-01 -1.45376440166887e-01)
(2.74238322787426e+00 -1.45711137376643e-01 -1.45711137376643e-01)
(2.74242463917509e+00 -1.46045834586398e-01 -1.46045834586398e-01)
(2.74246605047591e+00 -1.46380531796154e-01 -1.46380531796154e-01)
(2.74250746177674e+00 -1.46715229005910e-01 -1.46715229005910e-01)
(2.74254887307756e+00 -1.47049926215666e-01 -1.47049926215666e-01)
(2.74259028437838e+00 -1.47384623425422e-01 -1.47384623425422e-01)
(2.74263169567920e+00 -1.47719320635178e-01 -1.47719320635178e-01)
(2.74267310698001e+00 -1.48054017844934e-01 -1.48054017844934e-01)
(2.74271451828082e+00 -1.48388715054690e-01 -1.48388715054690e-01)
(2.74275592958164e+00 -1.48723412264447e-01 -1.48723412264447e-01)
(2.74279734088245e+00 -1.49058109474204e-01 -1.49058109474204e-01)
(2.74283875218325e+00 -1.49392806683960e-01 -1.49392806683960e-01)
(2.74288016348406e+00 -1.49727503893717e-01 -1.49727503893717e-01)
(2.74292157478486e+00 -1.50062201103474e-01 -1.50062201103474e-01)
(2.74296298608566e+00 -1.50396898313232e-01 -1.50396898313232e-01)
(2.74300439738646e+00 -1.50731595522989e-01 -1.50731595522989e-01)
(2.74304580868725e+00 -1.51066292732747e-01 -1.51066292732747e-01)
(2.74308721998805e+00 -1.51400989942504e-01 -1.51400989942504e-01)
(2.74312863128884e+00 -1.51735687152262e-01 -1.51735687152262e-01)
(2.74317004258963e+00 -1.52070384362020e-01 -1.52070384362020e-01)
(2.74321145389041e+00 -1.52405081571778e-01 -1.52405081571778e-01)
(2.74325286519120e+00 -1.52739778781536e-01 -1.52739778781536e-01)
(2.74329427649198e+00 -1.53074475991295e-01 -1.53074475991295e-01)
(2.74333568779276e+00 -1.53409173201053e-01 -1.53409173201053e-01)
(2.74337709909354e+00 -1.53743870410812e-01 -1.53743870410812e-01)
(2.74341851039431e+00 -1.54078567620571e-01 -1.54078567620571e-01)
(2.74345992169508e+00 -1.54413264830330e-01 -1.54413264830330e-01)
(2.74350133299585e+00 -1.54747962040089e-01 -1.54747962040089e-01)
(2.74354274429662e+00 -1.55082659249848e-01 -1.55082659249848e-01)
(2.74358415559738e+00 -1.55417356459608e-01 -1.55417356459608e-01)
(2.74362556689814e+00 -1.55752053669367e-01 -1.55752053669367e-01)
(2.74366697819890e+00 -1.56086750879127e-01 -1.56086750879127e-01)
(2.74370838949966e+00 -1.56421448088887e-01 -1.56421448088887e-01)
(2.74374980080041e+00 -1.56756145298647e-01 -1.56756145298647e-01)
(2.74379121210117e+00 -1.57090842508407e-01 -1.57090842508407e-01)
(2.74383262340191e+00 -1.57425539718168e-01 -1.57425539718168e-01)
(2.74387403470266e+00 -1.57760236927928e-01 -1.57760236927928e-01)
(2.74391544600340e+00 -1.58094934137689e-01 -1.58094934137689e-01)
(2.74395685730415e+00 -1.58429631347450e-01 -1.58429631347450e-01)
(2.74399826860488e+00 -1.58764328557211e-01 -1.58764328557211e-01)
(2.56039717381707e+00 5.90245600843423e-02 -5.90245600843423e-02)
(2.56079434764263e+00 5.93592572939172e-02 -5.93592572939172e-02)
(2.56119152146820e+00 5.96939545034906e-02 -5.96939545034906e-02)
(2.56158869529377e+00 6.00286517130626e-02 -6.00286517130627e-02)
(2.56198586911934e+00 6.03633489226333e-02 -6.03633489226333e-02)
(2.56238304294491e+00 6.06980461322025e-02 -6.06980461322025e-02)
(2.56278021677049e+00 6.10327433417704e-02 -6.10327433417704e-02)
(2.56317739059606e+00 6.13674405513370e-02 -6.13674405513370e-02)
(2.56357456442164e+00 6.17021377609022e-02 -6.17021377609022e-02)
(2.56397173824722e+00 6.20368349704661e-02 -6.20368349704662e-02)
(2.56436891207281e+00 6.23715321800288e-02 -6.23715321800288e-02)
(2.56476608589839e+00 6.27062293895902e-02 -6.27062293895903e-02)
(2.56516325972398e+00 6.30409265991504e-02 -6.30409265991504e-02)
(2.56556043354957e+00 6.33756238087093e-02 -6.33756238087093e-02)
(2.56595760737516e+00 6.37103210182671e-02 -6.37103210182671e-02)
(2.56635478120076e+00 6.40450182278236e-02 -6.40450182278236e-02)
(2.56675195502635e+00 6.43797154373790e-02 -6.43797154373790e-02)
(2.56714912885195e+00 6.47144126469332e-02 -6.47144126469332e-02)
(2.56754630267755e+00 6.50491098564863e-02 -6.50491098564864e-02)
(2.56794347650315e+00 6.53838070660383e-02 -6.53838070660384e-02)
(2.56834065032876e+00 6.57185042755892e-02 -6.57185042755893e-02)
(2.56873782415436e+00 6.60532014851391e-02 -6.60532014851391e-02)
(2.56913499797997e+00 6.63878986946879e-02 -6.63878986946879e-02)
(2.56953217180558e+00 6.67225959042356e-02 -6.67225959042357e-02)
(2.56992934563119e+00 6.70572931137824e-02 -6.70572931137824e-02)
(2.57032651945680e+00 6.73919903233281e-02 -6.73919903233281e-02)
(2.57072369328241e+00 6.77266875328729e-02 -6.77266875328729e-02)
(2.57112086710803e+00 6.80613847424167e-02 -6.80613847424167e-02)
(2.57151804093365e+00 6.83960819519596e-02 -6.83960819519596e-02)
(2.57191521475927e+00 6.87307791615015e-02 -6.87307791615015e-02)
(2.57231238858489e+00 6.90654763710425e-02 -6.90654763710426e-02)
(2.57270956241051e+00 6.94001735805827e-02 -6.94001735805827e-02)
(2.57310673623613e+00 6.97348707901220e-02 -6.97348707901221e-02)
(2.57350391006175e+00 7.00695679996605e-02 -7.00695679996605e-02)
(2.57390108388738e+00 7.04042652091981e-02 -7.04042652091981e-02)
(2.57429825771301e+00 7.07389624187349e-02 -7.07389624187350e-02)
(2.57469543153864e+00 7.10736596282710e-02 -7.10736596282710e-02)
(2.57509260536427e+00 7.14083568378062e-02 -7.14083568378063e-02)
(2.57548977918990e+00 7.17430540473408e-02 -7.17430540473408e-02)
(2.57588695301553e+00 7.20777512568746e-02 -7.20777512568746e-02)
(2.57628412684116e+00 7.24124484664076e-02 -7.24124484664077e-02)
(2.57668130066680e+00 7.27471456759400e-02 -7.27471456759400e-02)
(2.57707847449243e+00 7.30818428854717e-02 -7.30818428854718e-02)
(2.57747564831807e+00 7.34165400950028e-02 -7.34165400950028e-02)
(2.57787282214371e+00 7.37512373045332e-02 -7.37512373045333e-02)
(2.57826999596935e+00 7.40859345140630e-02 -7.40859345140630e-02)
(2.57866716979499e+00 7.44206317235922e-02 -7.44206317235923e-02)
(2.57906434362063e+00 7.47553289331209e-02 -7.47553289331209e-02)
(2.57946151744627e+00 7.50900261426489e-02 -7.50900261426490e-02)
(2.57985869127191e+00 7.54247233521765e-02 -7.54247233521765e-02)
(2.58025586509756e+00 7.57594205617035e-02 -7.57594205617035e-02)
(2.58065303892320e+00 7.60941177712300e-02 -7.60941177712300e-02)
(2.58105021274885e+00 7.64288149807560e-02 -7.64288149807560e-02)
(2.58144738657449e+00 7.67635121902815e-02 -7.67635121902816e-02)
(2.58184456040014e+00 7.70982093998067e-02 -7.70982093998067e-02)
(2.58224173422579e+00 7.74329066093313e-02 -7.74329066093314e-02)
(2.58263890805144e+00 7.77676038188556e-02 -7.77676038188556e-02)
(2.58303608187709e+00 7.81023010283795e-02 -7.81023010283795e-02)
(2.58343325570274e+00 7.84369982379030e-02 -7.84369982379030e-02)
(2.58383042952839e+00 7.87716954474261e-02 -7.87716954474262e-02)
(2.58422760335404e+00 7.91063926569490e-02 -7.91063926569490e-02)
(2.58462477717969e+00 7.94410898664715e-02 -7.94410898664715e-02)
(2.58502195100534e+00 7.97757870759937e-02 -7.97757870759937e-02)
(2.58541912483099e+00 8.01104842855156e-02 -8.01104842855156e-02)
(2.58581629865665e+00 8.04451814950373e-02 -8.04451814950373e-02)
(2.58621347248230e+00 8.07798787045588e-02 -8.07798787045588e-02)
(2.58661064630795e+00 8.11145759140800e-02 -8.11145759140800e-02)
(2.58700782013361e+00 8.14492731236010e-02 -8.14492731236011e-02)
(2.58740499395926e+00 8.17839703331219e-02 -8.17839703331219e-02)
(2.58780216778492e+00 8.21186675426426e-02 -8.21186675426426e-02)
(2.58819934161057e+00 8.24533647521631e-02 -8.24533647521632e-02)
(2.58859651543623e+00 8.27880619616835e-02 -8.27880619616836e-02)
(2.58899368926188e+00 8.31227591712038e-02 -8.31227591712039e-02)
(2.58939086308754e+00 8.34574563807241e-02 -8.34574563807241e-02)
(2.58978803691319e+00 8.37921535902442e-02 -8.37921535902443e-02)
(2.59018521073885e+00 8.41268507997643e-02 -8.41268507997644e-02)
(2.59058238456450e+00 8.44615480092844e-02 -8.44615480092844e-02)
(2.59097955839016e+00 8.47962452188045e-02 -8.47962452188045e-02)
(2.59137673221581e+00 8.51309424283246e-02 -8.51309424283246e-02)
(2.59177390604147e+00 8.54656396378447e-02 -8.54656396378447e-02)
(2.59217107986712e+00 8.58003368473648e-02 -8.58003368473648e-02)
(2.59256825369278e+00 8.61350340568850e-02 -8.61350340568851e-02)
(2.59296542751843e+00 8.64697312664053e-02 -8.64697312664054e-02)
(2.59336260134409e+00 8.68044284759257e-02 -8.68044284759258e-02)
(2.59375977516974e+00 8.71391256854462e-02 -8.71391256854463e-02)
(2.59415694899540e+00 8.74738228949669e-02 -8.74738228949669e-02)
(2.59455412282105e+00 8.78085201044877e-02 -8.78085201044878e-02)
(2.59495129664671e+00 8.81432173140087e-02 -8.81432173140088e-02)
(2.59534847047236e+00 8.84779145235299e-02 -8.84779145235300e-02)
(2.59574564429801e+00 8.88126117330513e-02 -8.88126117330514e-02)
(2.59614281812367e+00 8.91473089425730e-02 -8.91473089425730e-02)
(2.59653999194932e+00 8.94820061520949e-02 -8.94820061520949e-02)
(2.59693716577497e+00 8.98167033616170e-02 -8.98167033616171e-02)
(2.59733433960062e+00 9.01514005711395e-02 -9.01514005711395e-02)
(2.59773151342627e+00 9.04860977806623e-02 -9.04860977806623e-02)
(2.59812868725192e+00 9.08207949901854e-02 -9.08207949901854e-02)
(2.59852586107757e+00 9.11554921997088e-02 -9.11554921997089e-02)
(2.59892303490322e+00 9.14901894092327e-02 -9.14901894092327e-02)
(2.59932020872887e+00 9.18248866187569e-02 -9.18248866187569e-02)
(2.59971738255452e+00 9.21595838282815e-02 -9.21595838282815e-02)
(2.60011455638017e+00 9.24942810378065e-02 -9.24942810378066e-02)
(2.60051173020581e+00 9.28289782473320e-02 -9.28289782473321e-02)
(2.60090890403146e+00 9.31636754568579e-02 -9.31636754568580e-02)
(2.60130607785710e+00 9.34983726663844e-02 -9.34983726663844e-02)
(2.60170325168275e+00 9.38330698759113e-02 -9.38330698759113e-02)
(2.60210042550839e+00 9.41677670854387e-02 -9.41677670854388e-02)
(2.60249759933403e+00 9.45024642949667e-02 -9.45024642949668e-02)
(2.60289477315967e+00 9.48371615044953e-02 -9.48371615044953e-02)
(2.60329194698531e+00 9.51718587140244e-02 -9.51718587140244e-02)
(2.60368912081095e+00 9.55065559235541e-02 -9.55065559235541e-02)
(2.60408629463659e+00 9.58412531330844e-02 -9.58412531330844e-02)
(2.60448346846223e+00 9.61759503426153e-02 -9.61759503426154e-02)
(2.60488064228787e+00 9.65106475521470e-02 -9.65106475521470e-02)
(2.60527781611350e+00 9.68453447616792e-02 -9.68453447616793e-02)
(2.60567498993913e+00 9.71800419712122e-02 -9.71800419712122e-02)
(2.60607216376477e+00 9.75147391807459e-02 -9.75147391807459e-02)
(2.60646933759040e+00 9.78494363902803e-02 -9.78494363902803e-02)
(2.60686651141603e+00 9.81841335998154e-02 -9.81841335998155e-02)
(2.60726368524166e+00 9.85188308093513e-02 -9.85188308093514e-02)
(2.60766085906728e+00 9.88535280188880e-02 -9.88535280188881e-02)
(2.60805803289291e+00 9.91882252284255e-02 -9.91882252284256e-02)
(2.60845520671853e+00 9.95229224379638e-02 -9.95229224379639e-02)