/*--------------------------------*- C++ -*----------------------------------*\
| =========                 |                                                 |
| \\      /  F ield         | OpenFOAM: The Open Source CFD Toolbox           |
|  \\    /   O peration     | Version:  2.1.0                                 |
|   \\  /    A nd           | Web:      www.OpenFOAM.org                      |
|    \\/     M anipulation  |                                                 |
\*---------------------------------------------------------------------------*/
FoamFile
{
    version     2.0;
    format      ascii;
    class       featureEdgeMesh;
    location    "constant/triSurface";
    object      nozle.eMesh;
}
// * * * * * * * * * * * * * * * * * * * * * * * * * * * * * * * * * * * * * //


// points:

100
(
(4.00000000000000e+00 4.97493718553310e-01 5.00000000000000e-02)
(3.99685852647310e+00 4.97503637298802e-01 4.99012094920699e-02)
(3.99372958893694e+00 4.97533233515569e-01 4.96052539144862e-02)
(3.99062566089157e+00 4.97582031858958e-01 4.91133513487794e-02)
(3.98755909461574e+00 4.97649249988713e-01 4.84275118250410e-02)
(3.98454206371508e+00 4.97733811891296e-01 4.75505273216281e-02)
(3.98158650870315e+00 4.97834366429969e-01 4.64859536042839e-02)
(3.97870408709280e+00 4.97949310506320e-01 4.52380860024446e-02)
(3.97590612869922e+00 4.98076816147021e-01 4.38119312857589e-02)
(3.97320359616235e+00 4.98214860817423e-01 4.22131776154304e-02)
(3.97060705014789e+00 4.98361260294821e-01 4.04481641689505e-02)
(3.96812661831934e+00 4.98513703491420e-01 3.85238515489457e-02)
(3.96577196699255e+00 4.98669788682586e-01 3.64477935614523e-02)
(3.96355227437500e+00 4.98827060655375e-01 3.42281104499726e-02)
(3.96147620441926e+00 4.98983048335604e-01 3.18734632477532e-02)
(3.95955188054455e+00 4.99135302474013e-01 2.93930285928843e-02)
(3.95778685875629e+00 4.99281432973801e-01 2.67964731528493e-02)
(3.95618809998172e+00 4.99419145427108e-01 2.40939267255750e-02)
(3.95476194170459e+00 4.99546276404018e-01 2.12959531090443e-02)
(3.95351406920044e+00 4.99660827012373e-01 1.84135179385761e-02)
(3.95244948683185e+00 4.99760994228225e-01 1.54579528524877e-02)
(3.95157248995819e+00 4.99845199491352e-01 1.24409155347160e-02)
(3.95088663805489e+00 4.99912114072425e-01 9.37434537169412e-03)
(3.95039472963723e+00 4.99960680749758e-01 6.27041463122687e-03)
(3.95009877956225e+00 4.99990131383777e-01 3.14147521244871e-03)
(3.94999999925441e+00 5.00000000044470e-01 1.12596712476768e-09)
(3.95009879195172e+00 4.99990131834143e-01 -3.14147249424135e-03)
(3.95039475818471e+00 4.99960683045173e-01 -6.27041045306072e-03)
(3.95088666841496e+00 4.99912117255485e-01 -9.37434100567133e-03)
(3.95157250912937e+00 4.99845201956175e-01 -1.24409137053540e-02)
(3.95244949040783e+00 4.99760994822869e-01 -1.54579555050465e-02)
(3.95351406049313e+00 4.99660825489226e-01 -1.84135249099978e-02)
(3.95476192774974e+00 4.99546273384989e-01 -2.12959622473383e-02)
(3.95618808754167e+00 4.99419142058041e-01 -2.40939350387548e-02)
(3.95778685184722e+00 4.99281430451056e-01 -2.67964782200273e-02)
(3.95955187982795e+00 4.99135301613613e-01 -2.93930295489599e-02)
(3.96147620804228e+00 4.98983049314075e-01 -3.18734609703996e-02)
(3.96355227950058e+00 4.98827062986722e-01 -3.42281069626951e-02)
(3.96577197125641e+00 4.98669791421308e-01 -3.64477909836093e-02)
(3.96812662068163e+00 4.98513705584692e-01 -3.85238510840011e-02)
(3.97060705095101e+00 4.98361260964148e-01 -4.04481655900908e-02)
(3.97320359654383e+00 4.98214859842005e-01 -4.22131795000787e-02)
(3.97590612974107e+00 4.98076813950241e-01 -4.38119319311952e-02)
(3.97870408915310e+00 4.97949308006551e-01 -4.52380846226617e-02)
(3.98158651125726e+00 4.97834364692678e-01 -4.64859511813155e-02)
(3.98454206576994e+00 4.97733811691686e-01 -4.75505264798061e-02)
(3.98755909544337e+00 4.97649251443401e-01 -4.84275154074174e-02)
(3.99062566059001e+00 4.97582034296910e-01 -4.91133600487716e-02)
(3.99372958832993e+00 4.97533235728726e-01 -4.96052643348775e-02)
(3.99685852626094e+00 4.97503638250735e-01 -4.99012152725936e-02)
(4.00000000000000e+00 4.97493718553310e-01 -4.99999999999999e-02)
(4.00314147373906e+00 4.97503638250734e-01 -4.99012152725984e-02)
(4.00627041167007e+00 4.97533235728724e-01 -4.96052643348876e-02)
(4.00937433940999e+00 4.97582034296909e-01 -4.91133600487819e-02)
(4.01244090455663e+00 4.97649251443400e-01 -4.84275154074235e-02)
(4.01545793423005e+00 4.97733811691686e-01 -4.75505264798065e-02)
(4.01841348874274e+00 4.97834364692678e-01 -4.64859511813114e-02)
(4.02129591084689e+00 4.97949308006552e-01 -4.52380846226557e-02)
(4.02409387025892e+00 4.98076813950242e-01 -4.38119319311899e-02)
(4.02679640345617e+00 4.98214859842005e-01 -4.22131795000760e-02)
(4.02939294904899e+00 4.98361260964147e-01 -4.04481655900912e-02)
(4.03187337931837e+00 4.98513705584692e-01 -3.85238510840040e-02)
(4.03422802874359e+00 4.98669791421308e-01 -3.64477909836134e-02)
(4.03644772049942e+00 4.98827062986721e-01 -3.42281069626990e-02)
(4.03852379195772e+00 4.98983049314074e-01 -3.18734609704022e-02)
(4.04044812017205e+00 4.99135301613614e-01 -2.93930295489610e-02)
(4.04221314815278e+00 4.99281430451057e-01 -2.67964782200271e-02)
(4.04381191245833e+00 4.99419142058042e-01 -2.40939350387538e-02)
(4.04523807225025e+00 4.99546273384990e-01 -2.12959622473373e-02)
(4.04648593950687e+00 4.99660825489226e-01 -1.84135249099970e-02)
(4.04755050959217e+00 4.99760994822869e-01 -1.54579555050463e-02)
(4.04842749087063e+00 4.99845201956173e-01 -1.24409137053541e-02)
(4.04911333158504e+00 4.99912117255483e-01 -9.37434100567157e-03)
(4.04960524181529e+00 4.99960683045171e-01 -6.27041045306099e-03)
(4.04990120804828e+00 4.99990131834143e-01 -3.14147249424165e-03)
(4.05000000074559e+00 5.00000000044470e-01 1.12596681620374e-09)
(4.04990122043775e+00 4.99990131383778e-01 3.14147521244852e-03)
(4.04960527036277e+00 4.99960680749758e-01 6.27041463122676e-03)
(4.04911336194511e+00 4.99912114072426e-01 9.37434537169378e-03)
(4.04842751004181e+00 4.99845199491352e-01 1.24409155347151e-02)
(4.04755051316815e+00 4.99760994228225e-01 1.54579528524863e-02)
(4.04648593079956e+00 4.99660827012374e-01 1.84135179385745e-02)
(4.04523805829541e+00 4.99546276404018e-01 2.12959531090430e-02)
(4.04381190001828e+00 4.99419145427108e-01 2.40939267255743e-02)
(4.04221314124371e+00 4.99281432973801e-01 2.67964731528493e-02)
(4.04044811945546e+00 4.99135302474013e-01 2.93930285928847e-02)
(4.03852379558074e+00 4.98983048335604e-01 3.18734632477536e-02)
(4.03644772562500e+00 4.98827060655375e-01 3.42281104499725e-02)
(4.03422803300745e+00 4.98669788682585e-01 3.64477935614516e-02)
(4.03187338168066e+00 4.98513703491420e-01 3.85238515489444e-02)
(4.02939294985211e+00 4.98361260294821e-01 4.04481641689490e-02)
(4.02679640383765e+00 4.98214860817423e-01 4.22131776154292e-02)
(4.02409387130078e+00 4.98076816147021e-01 4.38119312857584e-02)
(4.02129591290720e+00 4.97949310506320e-01 4.52380860024450e-02)
(4.01841349129685e+00 4.97834366429969e-01 4.64859536042848e-02)
(4.01545793628493e+00 4.97733811891296e-01 4.75505273216289e-02)
(4.01244090538426e+00 4.97649249988713e-01 4.84275118250410e-02)
(4.00937433910843e+00 4.97582031858957e-01 4.91133513487784e-02)
(4.00627041106306e+00 4.97533233515569e-01 4.96052539144848e-02)
(4.00314147352690e+00 4.97503637298802e-01 4.99012094920691e-02)
)


// edges:

100
(
(0 1)
(1 2)
(2 3)
(3 4)
(4 5)
(5 6)
(6 7)
(7 8)
(8 9)
(9 10)
(10 11)
(11 12)
(12 13)
(13 14)
(14 15)
(15 16)
(16 17)
(17 18)
(18 19)
(19 20)
(20 21)
(21 22)
(22 23)
(23 24)
(24 25)
(25 26)
(26 27)
(27 28)
(28 29)
(29 30)
(30 31)
(31 32)
(32 33)
(33 34)
(34 35)
(35 36)
(36 37)
(37 38)
(38 39)
(39 40)
(40 41)
(41 42)
(42 43)
(43 44)
(44 45)
(45 46)
(46 47)
(47 48)
(48 49)
(49 50)
(50 51)
(51 52)
(52 53)
(53 54)
(54 55)
(55 56)
(56 57)
(57 58)
(58 59)
(59 60)
(60 61)
(61 62)
(62 63)
(63 64)
(64 65)
(65 66)
(66 67)
(67 68)
(68 69)
(69 70)
(70 71)
(71 72)
(72 73)
(73 74)
(74 75)
(75 76)
(76 77)
(77 78)
(78 79)
(79 80)
(80 81)
(81 82)
(82 83)
(83 84)
(84 85)
(85 86)
(86 87)
(87 88)
(88 89)
(89 90)
(90 91)
(91 92)
(92 93)
(93 94)
(94 95)
(95 96)
(96 97)
(97 98)
(98 99)
(99 0)
)

// * * * * * * * * * * * * * * * * * * * * * * * * * * * * * * * * * * * * * //


// ************************************************************************* //
